tests/data/egret/case14.json
{"elements": {"bus": {"1": {"matpower_bustype": "ref", "area": 1.0, "vm": 1.06, "va": 0.0, "zone": 1.0, "v_min": 0.94, "v_max": 1.06}, "2": {"matpower_bustype": "PV", "area": 1.0, "vm": 1.045, "va": -4.98, "zone": 1.0, "v_min": 0.94, "v_max": 1.06}, "3": {"matpower_bustype": "PV", "area": 1.0, "vm": 1.01, "va": -12.72, "zone": 1.0, "v_min": 0.94, "v_max": 1.06}, "4": {"matpower_bustype": "PQ", "area": 1.0, "vm": 1.019, "va": -10.33, "zone": 1.0, "v_min": 0.94, "v_max": 1.06}, "5": {"matpower_bustype": "PQ", "area": 1.0, "vm": 1.02, "va": -8.78, "zone": 1.0, "v_min": 0.94, "v_max": 1.06}, "6": {"matpower_bustype": "PV", "area": 1.0, "vm": 1.07, "va": -14.22, "zone": 1.0, "v_min": 0.94, "v_max": 1.06}, "7": {"matpower_bustype": "PQ", "area": 1.0, "vm": 1.062, "va": -13.37, "zone": 1.0, "v_min": 0.94, "v_max": 1.06}, "8": {"matpower_bustype": "PV", "area": 1.0, "vm": 1.09, "va": -13.36, "zone": 1.0, "v_min": 0.94, "v_max": 1.06}, "9": {"matpower_bustype": "PQ", "area": 1.0, "vm": 1.056, "va": -14.94, "zone": 1.0, "v_min": 0.94, "v_max": 1.06}, "10": {"matpower_bustype": "PQ", "area": 1.0, "vm": 1.051, "va": -15.1, "zone": 1.0, "v_min": 0.94, "v_max": 1.06}, "11": {"matpower_bustype": "PQ", "area": 1.0, "vm": 1.057, "va": -14.79, "zone": 1.0, "v_min": 0.94, "v_max": 1.06}, "12": {"matpower_bustype": "PQ", "area": 1.0, "vm": 1.055, "va": -15.07, "zone": 1.0, "v_min": 0.94, "v_max": 1.06}, "13": {"matpower_bustype": "PQ", "area": 1.0, "vm": 1.05, "va": -15.16, "zone": 1.0, "v_min": 0.94, "v_max": 1.06}, "14": {"matpower_bustype": "PQ", "area": 1.0, "vm": 1.036, "va": -16.04, "zone": 1.0, "v_min": 0.94, "v_max": 1.06}}, "load": {"load_2": {"in_service": true, "p_load": 21.7, "q_load": 12.7, "bus": "2"}, "load_3": {"in_service": true, "p_load": 94.2, "q_load": 19.0, "bus": "3"}, "load_4": {"in_service": true, "p_load": 47.8, "q_load": -3.9, "bus": "4"}, "load_5": {"in_service": true, "p_load": 7.6, "q_load": 1.6, "bus": "5"}, "load_6": {"in_service": true, "p_load": 11.2, "q_load": 7.5, "bus": "6"}, "load_9": {"in_service": true, "p_load": 29.5, "q_load": 16.6, "bus": "9"}, "load_10": {"in_service": true, "p_load": 9.0, "q_load": 5.8, "bus": "10"}, "load_11": {"in_service": true, "p_load": 3.5, "q_load": 1.8, "bus": "11"}, "load_12": {"in_service": true, "p_load": 6.1, "q_load": 1.6, "bus": "12"}, "load_13": {"in_service": true, "p_load": 13.5, "q_load": 5.8, "bus": "13"}, "load_14": {"in_service": true, "p_load": 14.9, "q_load": 5.0, "bus": "14"}}, "shunt": {"shunt_9": {"shunt_type": "fixed", "bs": 19.0, "gs": 0.0, "bus": "9"}}, "generator": {"1": {"bus": "1", "pg": 232.4, "qg": -16.9, "vg": 1.06, "mbase": 100.0, "in_service": true, "p_min": 0.0, "p_max": 332.4, "q_min": 0.0, "q_max": 10.0, "generator_type": "thermal", "pc1": 0.0, "pc2": 0.0, "qc1_min": 0.0, "qc1_max": 0.0, "qc2_min": 0.0, "qc2_max": 0.0, "ramp_agc": 0.0, "ramp_10": 0.0, "ramp_30": 0.0, "ramp_q": 0.0, "power_factor": 0.0, "p_cost": {"data_type": "cost_curve", "cost_curve_type": "polynomial", "values": {"0": 0.0, "1": 20.0, "2": 0.0430292599}}, "startup_cost": 0.0, "shutdown_cost": 0.0}, "2": {"bus": "2", "pg": 40.0, "qg": 42.4, "vg": 1.045, "mbase": 100.0, "in_service": true, "p_min": 0.0, "p_max": 140.0, "q_min": -40.0, "q_max": 50.0, "generator_type": "thermal", "pc1": 0.0, "pc2": 0.0, "qc1_min": 0.0, "qc1_max": 0.0, "qc2_min": 0.0, "qc2_max": 0.0, "ramp_agc": 0.0, "ramp_10": 0.0, "ramp_30": 0.0, "ramp_q": 0.0, "power_factor": 0.0, "p_cost": {"data_type": "cost_curve", "cost_curve_type": "polynomial", "values": {"0": 0.0, "1": 20.0, "2": 0.25}}, "startup_cost": 0.0, "shutdown_cost": 0.0}, "3": {"bus": "3", "pg": 0.0, "qg": 23.4, "vg": 1.01, "mbase": 100.0, "in_service": true, "p_min": 0.0, "p_max": 100.0, "q_min": 0.0, "q_max": 40.0, "generator_type": "thermal", "pc1": 0.0, "pc2": 0.0, "qc1_min": 0.0, "qc1_max": 0.0, "qc2_min": 0.0, "qc2_max": 0.0, "ramp_agc": 0.0, "ramp_10": 0.0, "ramp_30": 0.0, "ramp_q": 0.0, "power_factor": 0.0, "p_cost": {"data_type": "cost_curve", "cost_curve_type": "polynomial", "values": {"0": 0.0, "1": 40.0, "2": 0.01}}, "startup_cost": 0.0, "shutdown_cost": 0.0}, "4": {"bus": "6", "pg": 0.0, "qg": 12.2, "vg": 1.07, "mbase": 100.0, "in_service": true, "p_min": 0.0, "p_max": 100.0, "q_min": -6.0, "q_max": 24.0, "generator_type": "thermal", "pc1": 0.0, "pc2": 0.0, "qc1_min": 0.0, "qc1_max": 0.0, "qc2_min": 0.0, "qc2_max": 0.0, "ramp_agc": 0.0, "ramp_10": 0.0, "ramp_30": 0.0, "ramp_q": 0.0, "power_factor": 0.0, "p_cost": {"data_type": "cost_curve", "cost_curve_type": "polynomial", "values": {"0": 0.0, "1": 40.0, "2": 0.01}}, "startup_cost": 0.0, "shutdown_cost": 0.0}, "5": {"bus": "8", "pg": 0.0, "qg": 17.4, "vg": 1.09, "mbase": 100.0, "in_service": true, "p_min": 0.0, "p_max": 100.0, "q_min": -6.0, "q_max": 24.0, "generator_type": "thermal", "pc1": 0.0, "pc2": 0.0, "qc1_min": 0.0, "qc1_max": 0.0, "qc2_min": 0.0, "qc2_max": 0.0, "ramp_agc": 0.0, "ramp_10": 0.0, "ramp_30": 0.0, "ramp_q": 0.0, "power_factor": 0.0, "p_cost": {"data_type": "cost_curve", "cost_curve_type": "polynomial", "values": {"0": 0.0, "1": 40.0, "2": 0.01}}, "startup_cost": 0.0, "shutdown_cost": 0.0}}, "branch": {"1": {"from_bus": "1", "to_bus": "2", "resistance": 0.01938, "reactance": 0.05917, "charging_susceptance": 0.0528, "branch_type": "line", "rating_long_term": null, "rating_short_term": null, "rating_emergency": null, "in_service": true, "angle_diff_min": -360.0, "angle_diff_max": 360.0, "pf": null, "qf": null, "pt": null, "qt": null}, "2": {"from_bus": "1", "to_bus": "5", "resistance": 0.05403, "reactance": 0.22304, "charging_susceptance": 0.0492, "branch_type": "line", "rating_long_term": null, "rating_short_term": null, "rating_emergency": null, "in_service": true, "angle_diff_min": -360.0, "angle_diff_max": 360.0, "pf": null, "qf": null, "pt": null, "qt": null}, "3": {"from_bus": "2", "to_bus": "3", "resistance": 0.04699, "reactance": 0.19797, "charging_susceptance": 0.0438, "branch_type": "line", "rating_long_term": null, "rating_short_term": null, "rating_emergency": null, "in_service": true, "angle_diff_min": -360.0, "angle_diff_max": 360.0, "pf": null, "qf": null, "pt": null, "qt": null}, "4": {"from_bus": "2", "to_bus": "4", "resistance": 0.05811, "reactance": 0.17632, "charging_susceptance": 0.034, "branch_type": "line", "rating_long_term": null, "rating_short_term": null, "rating_emergency": null, "in_service": true, "angle_diff_min": -360.0, "angle_diff_max": 360.0, "pf": null, "qf": null, "pt": null, "qt": null}, "5": {"from_bus": "2", "to_bus": "5", "resistance": 0.05695, "reactance": 0.17388, "charging_susceptance": 0.0346, "branch_type": "line", "rating_long_term": null, "rating_short_term": null, "rating_emergency": null, "in_service": true, "angle_diff_min": -360.0, "angle_diff_max": 360.0, "pf": null, "qf": null, "pt": null, "qt": null}, "6": {"from_bus": "3", "to_bus": "4", "resistance": 0.06701, "reactance": 0.17103, "charging_susceptance": 0.0128, "branch_type": "line", "rating_long_term": null, "rating_short_term": null, "rating_emergency": null, "in_service": true, "angle_diff_min": -360.0, "angle_diff_max": 360.0, "pf": null, "qf": null, "pt": null, "qt": null}, "7": {"from_bus": "4", "to_bus": "5", "resistance": 0.01335, "reactance": 0.04211, "charging_susceptance": 0.0, "branch_type": "line", "rating_long_term": null, "rating_short_term": null, "rating_emergency": null, "in_service": true, "angle_diff_min": -360.0, "angle_diff_max": 360.0, "pf": null, "qf": null, "pt": null, "qt": null}, "8": {"from_bus": "4", "to_bus": "7", "resistance": 0.0, "reactance": 0.20912, "charging_susceptance": 0.0, "transformer_tap_ratio": 0.978, "transformer_phase_shift": 0.0, "branch_type": "transformer", "rating_long_term": null, "rating_short_term": null, "rating_emergency": null, "in_service": true, "angle_diff_min": -360.0, "angle_diff_max": 360.0, "pf": null, "qf": null, "pt": null, "qt": null}, "9": {"from_bus": "4", "to_bus": "9", "resistance": 0.0, "reactance": 0.55618, "charging_susceptance": 0.0, "transformer_tap_ratio": 0.969, "transformer_phase_shift": 0.0, "branch_type": "transformer", "rating_long_term": null, "rating_short_term": null, "rating_emergency": null, "in_service": true, "angle_diff_min": -360.0, "angle_diff_max": 360.0, "pf": null, "qf": null, "pt": null, "qt": null}, "10": {"from_bus": "5", "to_bus": "6", "resistance": 0.0, "reactance": 0.25202, "charging_susceptance": 0.0, "transformer_tap_ratio": 0.932, "transformer_phase_shift": 0.0, "branch_type": "transformer", "rating_long_term": null, "rating_short_term": null, "rating_emergency": null, "in_service": true, "angle_diff_min": -360.0, "angle_diff_max": 360.0, "pf": null, "qf": null, "pt": null, "qt": null}, "11": {"from_bus": "6", "to_bus": "11", "resistance": 0.09498, "reactance": 0.1989, "charging_susceptance": 0.0, "branch_type": "line", "rating_long_term": null, "rating_short_term": null, "rating_emergency": null, "in_service": true, "angle_diff_min": -360.0, "angle_diff_max": 360.0, "pf": null, "qf": null, "pt": null, "qt": null}, "12": {"from_bus": "6", "to_bus": "12", "resistance": 0.12291, "reactance": 0.25581, "charging_susceptance": 0.0, "branch_type": "line", "rating_long_term": null, "rating_short_term": null, "rating_emergency": null, "in_service": true, "angle_diff_min": -360.0, "angle_diff_max": 360.0, "pf": null, "qf": null, "pt": null, "qt": null}, "13": {"from_bus": "6", "to_bus": "13", "resistance": 0.06615, "reactance": 0.13027, "charging_susceptance": 0.0, "branch_type": "line", "rating_long_term": null, "rating_short_term": null, "rating_emergency": null, "in_service": true, "angle_diff_min": -360.0, "angle_diff_max": 360.0, "pf": null, "qf": null, "pt": null, "qt": null}, "14": {"from_bus": "7", "to_bus": "8", "resistance": 0.0, "reactance": 0.17615, "charging_susceptance": 0.0, "branch_type": "line", "rating_long_term": null, "rating_short_term": null, "rating_emergency": null, "in_service": true, "angle_diff_min": -360.0, "angle_diff_max": 360.0, "pf": null, "qf": null, "pt": null, "qt": null}, "15": {"from_bus": "7", "to_bus": "9", "resistance": 0.0, "reactance": 0.11001, "charging_susceptance": 0.0, "branch_type": "line", "rating_long_term": null, "rating_short_term": null, "rating_emergency": null, "in_service": true, "angle_diff_min": -360.0, "angle_diff_max": 360.0, "pf": null, "qf": null, "pt": null, "qt": null}, "16": {"from_bus": "9", "to_bus": "10", "resistance": 0.03181, "reactance": 0.0845, "charging_susceptance": 0.0, "branch_type": "line", "rating_long_term": null, "rating_short_term": null, "rating_emergency": null, "in_service": true, "angle_diff_min": -360.0, "angle_diff_max": 360.0, "pf": null, "qf": null, "pt": null, "qt": null}, "17": {"from_bus": "9", "to_bus": "14", "resistance": 0.12711, "reactance": 0.27038, "charging_susceptance": 0.0, "branch_type": "line", "rating_long_term": null, "rating_short_term": null, "rating_emergency": null, "in_service": true, "angle_diff_min": -360.0, "angle_diff_max": 360.0, "pf": null, "qf": null, "pt": null, "qt": null}, "18": {"from_bus": "10", "to_bus": "11", "resistance": 0.08205, "reactance": 0.19207, "charging_susceptance": 0.0, "branch_type": "line", "rating_long_term": null, "rating_short_term": null, "rating_emergency": null, "in_service": true, "angle_diff_min": -360.0, "angle_diff_max": 360.0, "pf": null, "qf": null, "pt": null, "qt": null}, "19": {"from_bus": "12", "to_bus": "13", "resistance": 0.22092, "reactance": 0.19988, "charging_susceptance": 0.0, "branch_type": "line", "rating_long_term": null, "rating_short_term": null, "rating_emergency": null, "in_service": true, "angle_diff_min": -360.0, "angle_diff_max": 360.0, "pf": null, "qf": null, "pt": null, "qt": null}, "20": {"from_bus": "13", "to_bus": "14", "resistance": 0.17093, "reactance": 0.34802, "charging_susceptance": 0.0, "branch_type": "line", "rating_long_term": null, "rating_short_term": null, "rating_emergency": null, "in_service": true, "angle_diff_min": -360.0, "angle_diff_max": 360.0, "pf": null, "qf": null, "pt": null, "qt": null}}}, "system": {"model_name": "case14", "mpc_version": "'2'", "baseMVA": 100.0, "reference_bus": "1", "reference_bus_angle": 0.0}}